Circuit: * C:\Users\Valéry\Documents\GitHub\Domotique\simulation\PSU_3v3.asc

Direct Newton iteration for .op point succeeded.

Date: Sun Jul 05 23:47:43 2020
Total elapsed time: 0.231 seconds.

tnom = 27
temp = 27
method = modified trap
totiter = 10425
traniter = 10406
tranpoints = 3849
accept = 2994
rejected = 855
matrix size = 16
fillins = 3
solver = Normal
Matrix Compiler1: 1.15 KB object code size  0.3/0.3/[0.2]
Matrix Compiler2: off  [0.2]/0.3/0.2

